<?xml version="1.0" encoding="UTF-8"?>

<!-- generated on 2023-10-17 18:56:22 by Eclipse SUMO duarouter Version v1_18_0+1969-a4eae2a1273
<configuration xmlns:xsi="http://www.w3.org/2001/XMLSchema-instance" xsi:noNamespaceSchemaLocation="http://sumo.dlr.de/xsd/duarouterConfiguration.xsd">

    <input>
        <net-file value="000/../map2.net.xml"/>
        <route-files value="000/../trips.trips.xml"/>
    </input>

    <output>
        <output-file value="000/trips_000.rou.xml"/>
        <exit-times value="False"/>
    </output>

    <processing>
        <max-alternatives value="5"/>
        <with-taz value="False"/>
        <routing-algorithm value="dijkstra"/>
        <weights.expand value="true"/>
        <gawron.beta value="0.9"/>
        <gawron.a value="0.5"/>
        <keep-all-routes value="False"/>
        <logit.beta value="0.15"/>
        <logit.gamma value="1.0"/>
    </processing>

    <time>
        <begin value="0"/>
    </time>

    <report>
        <verbose value="False"/>
        <no-warnings value="False"/>
        <ignore-errors value="False"/>
        <no-step-log value="true"/>
    </report>

    <random_number>
        <random value="False"/>
    </random_number>

</configuration>
-->

<routes xmlns:xsi="http://www.w3.org/2001/XMLSchema-instance" xsi:noNamespaceSchemaLocation="http://sumo.dlr.de/xsd/routes_file.xsd">
    <vehicle id="0" depart="0.00">
        <route edges="266455682#7 266455682#8 266455682#9 266455682#10 266478244 291265581#3 291265581#4 291265581#5 291265581#6 291265581#7 291265581#8 320052860#0 320052860#1 367178416#1 367178416#2 367178416#3 -842028970#2 -842028970#1 -842028970#0 -842028968 -842028979#0 -842028980#1 -842028980#0 -404096738#3 -404096738#2 -404096738#1 -404096738#0 658884189#1 658884189#2 658884189#3 658884189#4 658884189#5 658884189#6 658884189#7 658884189#8 658884189#9 129857196#0 129857196#1 129857196#2 -129857196#2"/>
    </vehicle>
    <vehicle id="1" depart="1.00">
        <route edges="-400043754#3 400043754#3 400043754#4 400043754#5 400043754#6 -662231431#0 -662231427 -662231430 -129929785 -129753202#4 -129753202#3 -129753202#2 -129753202#1 -129753202#0 -658014352#2 -658014352#1 -658014352#0 366598814 399342582 366598816#0 366598816#1 -366976395#1 -366976395#0"/>
    </vehicle>
    <vehicle id="2" depart="2.00">
        <route edges="367038307 -129932511#2 -433148609#1 -433148609#0 433148611#4 433148611#0 433148611#1 -399756206 -129928467 -367178391 -661617492 661617491 -905747355#2 -905747355#1 -905747355#0 1201588311 1201588310 129942512#0 129942512#1 129942512#2 129942512#3 -664379235 -664379236 -399568775#2 -399568775#1 -399568775#0 129942802#2 399568776#0 399568776#1 399568776#2 399568776#3 399568776#4 338160216 -338160220#2 338160220#2"/>
    </vehicle>
    <vehicle id="3" depart="3.00">
        <route edges="659343073#0 -659343073#0 428121313#3 428121313#4 428121313#5 428121313#6 905745220 659361858#0 659361858#1 659361858#2 659361858#3 931868497 386820242#0 386820242#1 129932514#0 129932514#1 266482080 266482078#0 266482078#1 -129942569#2"/>
    </vehicle>
    <vehicle id="4" depart="4.00">
        <route edges="-779225958 779225951 -779226218 839156147#2 839156147#3 839156147#4 266475899 -779227190 -779227193 -266475896 -1032672498#4 -1032672498#3 -1032672498#2 -1032672498#1 -1032672498#0 -1032672499 -1032672500 -1032672501 -437895860#1 -437895860#0 129942551 658259085#0 658259085#1 -660570746#1 -660570746#0 -660570747 -437895858 660570745 660985922 -266454614 266437808 658255408 658255395 658255405 658255401 -386820242#7 -386820242#6 -386820242#5 -386820242#4 -386820242#3 -386820242#2 -386820242#1 -386820242#0 -367038261 367038265#0 367038265#1 367038265#2 367038265#3 367038265#4 659361851#1 659361851#2 659343077 659343073#0 659343073#1 -129857200#1"/>
    </vehicle>
    <vehicle id="5" depart="5.00">
        <route edges="-366598811 129929354#2 366598794#3 129929365 386100106#2 364828766#0 364828766#1 364828766#2 364828766#3 388157386#0 388157386#1 250704312 129929333 129760409#1 129760409#2 399345574#0 399345574#1 399345574#2 399345574#3 778945014#0 778945014#1 778945014#2 778945014#3 778945014#4 778945014#5 778945014#6 778945014#7 129929368#0 129929357#0 129929357#1 129929357#2 129929357#3 266482075 266482076#0 266482076#1 659288429 -129932530#3 -129932530#2 -129932530#1 -129932501#0 129932501#0"/>
    </vehicle>
    <vehicle id="6" depart="6.00">
        <route edges="-129857197#4 -129857197#3 -129857197#2 -129857197#1 -129857197#0 402534194#3 658884189#17 658884189#18 658884189#19 428121313#1 428121313#2 428121313#3 428121313#4 428121313#5 428121313#6 905745220 659361858#0 659361858#1 659361858#2 659361858#3 931868497 386820242#0 386820242#1 386820242#2 386820242#3 386820242#4 386820242#5 386820242#6 386820242#7 658255398 266437812 266454615 266454619 658255406 658255408 658255397 -266482082 -266482079 -367038272#1 -367038272#0 367038271 -384222962#2 -384222962#1 -384222962#0 -433148610 433148611#3 433148611#4 433148611#0 433148611#1 -399756206 -129928467 -367178391 -661617492 661617491 -905747355#2 -905747355#1 -905747355#0 1201588311 1201588310 129942512#0 129942512#1 129942512#2 129942512#3 -664379235 -664379236 -399568775#2 -399568775#1 -399568775#0 129942802#2 399568776#0 399568776#1 399568776#2 338160214#0 338160214#1 -338160214#1"/>
    </vehicle>
    <vehicle id="7" depart="7.00">
        <route edges="278566682#1 660984254#0 660984254#1 -661020860#0 660984255#0 -278566682#0 661020856#0 -419590977#0 -129942708#6 -129942708#5 -129942708#4 -129942708#3 -129942708#2 -129942815#5 -129942815#4 -129942675#1 129942675#1"/>
    </vehicle>
    <vehicle id="8" depart="8.00">
        <route edges="-366976396 366976395#1 399346096 997456914 997456913 366976407#0 366976407#1 -129942792#4 -129942715#0 -129942808#4 129942808#4"/>
    </vehicle>
    <vehicle id="9" depart="9.00">
        <route edges="404096736 -404096732#3 404096732#3 -404096736 659529248#4 658884189#4 658884189#5 658884189#6 658884189#7 658884189#8 658884189#9 658884189#10 658884189#11 -129857179#9 -129857179#8 -129857179#7 -129857179#6 -129857179#5 -129857179#4 -129857179#3 -129857179#2 -129857179#1 -129857179#0 -398837278#4 -398837278#3 -129760440#1 -129760440#0"/>
    </vehicle>
    <vehicle id="10" depart="10.00">
        <route edges="403551283#0 403551283#1 -403551283#1 -403551283#0 364838389#1 364838389#2 400043754#0 400043754#1 400043754#2 400043754#3 400043754#4 400043754#5 400043754#6 -662231431#0 -662231427 -662231430 -129942659#1 -129942742#1 -129942742#0 662472444 662472443 662472439 662472445#0 662472445#1 662472446 662472440 662472433 662472438 662472431 351033081"/>
    </vehicle>
    <vehicle id="11" depart="11.00">
        <route edges="-658884189#13 658884189#13 658884189#14 658884189#15 658884189#16 658884189#17 658884189#18 658884189#19 428121313#1 428121313#2 428121313#3 428121313#4 428121313#5 428121313#6 905745220 659361858#0 659361858#1 659361858#2 659361858#3 931868497 386820242#0 386820242#1 386820242#2 386820242#3 386820242#4 386820242#5 386820242#6 386820242#7 658255398 266437812 266454615 266454619 658255406 658255408 658255397 -266482082 -266482079 -367038272#1 -367038272#0 367038271 384222959 -399342568#3 -399342568#2 -399342568#1 -399342568#0 -129942836#3"/>
    </vehicle>
    <vehicle id="12" depart="12.00">
        <route edges="664399844#3 129942771#0 129942771#1 129942771#2 129942771#3 -129942708#2 -129942708#1 -129942708#0 129942640#0 129942640#1 -129942852 367038309 367038310 367038311 660984261 660985923 367152655 660985925 129928464#0 129928464#1 129932495 129932515#0 129932515#1 433148611#1 433148611#2 433148611#3 433148609#0 433148609#1 -129932511#1 -129932511#0 -266482084#0 -266482085 -437895857#2 -437895857#1 -437895857#0 660985922 437895859 437895858 660570747 660570746#0 660570746#1 399149595 658259084 437895860#0 437895860#1 291265588 960359133 291265603#1 291265603#2 291265603#3 291265603#4 291265603#5 413489362#0 842028963 -842028962#1 -842028962#0 -736662810#3 -736662810#2 -736662810#1 -736662810#0 294907540#1 294907540#2 294907540#3 960314176 899833737#3 899833737#4 292489656#0 292489656#1 292489656#2 373329426 291265581#8 320052860#0 320052860#1 367178416#1 367178416#2 367178416#3 -842028970#2 -842028970#1 -842028970#0 -842028968 -842028979#0 -842028980#1 -842028980#0 -404096738#3 -404096738#2 -404096738#1 -404096738#0 -658884189#0"/>
    </vehicle>
    <vehicle id="13" depart="13.00">
        <route edges="-129942655#1 -129942655#0 -129942694#0 351033079#1 351033079#2 351033079#3 351033079#4 665896900 665896899 399342581 399342579#0 399342579#1 399342579#2 399342579#3 399342579#4 399342580#0 129942510#0 129942510#1 129942510#2 129942510#3 129942510#4 -662229175#1 -129942654#1"/>
    </vehicle>
    <vehicle id="14" depart="14.00">
        <route edges="656491249#0 -656491249#0 -442193606#2 -442193606#1 -434749510 -407469597#0 -894158446 894161954#0 894161954#1 894161954#2 -442195195#1 -442195195#0 -442195194 129854971#0 129854971#1 129854971#2 129854971#3 -129854952#0 -185209870#0 390186895 185208371 185208374 129760440#0 129760440#1 658884188#0 658884188#1 399342558#0 399342558#1 399342558#2 399342558#3 -384124920 -399342554 -129848467 778945014#4 778945014#5 778945014#6 778945014#7 -659182735 -367011020 367011019 659182736 243601589 366144106 129929359#1 129929359#2 399342576 -662451954#5 -662451954#4 -662451954#3 -662451954#2 129929794 367011029#1 367011029#2 367011029#3 129942844#0"/>
    </vehicle>
    <vehicle id="15" depart="15.00">
        <route edges="404072822#4 -404072822#4 -404072822#3 -404072822#2 -404072822#1 -404072822#0 658884189#3 658884189#4 658884189#5 658884189#6 658884189#7 658884189#8 658884189#9 658884189#10 658884189#11 658884189#12 658884189#13 658884189#14 658884189#15 658884189#16 658884189#17 658884189#18 658884189#19 428121313#1 428121313#2 428121313#3 428121313#4 428121313#5 428121313#6 905745220 659361858#0 659361858#1 659361858#2 659361858#3 931868497 386820242#0 386820242#1 386820242#2 386820242#3 386820242#4 386820242#5 386820242#6 386820242#7 658255398 266437812 266454615 266454619 658255406 658255408 658255397 -266482082 -266482079 -367038272#1 -367038272#0 367038271 -384222962#2 -384222962#1 -384222962#0 -433148610 433148611#3 433148611#4 433148611#0 433148611#1 -399756206 -129928467 -367178391 -661617492 661617492 367178391"/>
    </vehicle>
    <vehicle id="16" depart="16.00">
        <route edges="129942522#4 -399756200#1 351033080#5 351033080#6 351033080#7 351033080#8 351033080#9 351033080#10 351033080#11 905747355#0 905747355#1 905747355#2 661615728 367178391 129928467 399756206 433148611#2 433148611#3 433148609#0 433148609#1 -129932511#1 -129932511#0 -266482084#0 -266482085 -437895857#2 -437895857#1 -437895857#0 660985922 437895859 437895858 660570747 660570746#0 660570746#1 399149595 658259084 437895860#0 437895860#1 1032672501 1032672500 1032672499 1032672498#0 1032672498#1 1032672498#2 1032672498#3 1032672498#4 266475896 779227193 779227186 779227191 266475899 442192094#0 779227194 779227185#1"/>
    </vehicle>
    <vehicle id="17" depart="17.00">
        <route edges="-660984264#0 384222962#0 384222962#1 -384222962#1 -384222962#0 -433148610 433148611#3 433148611#4 433148611#0 -129932515#1 -129932515#0 -129932495 -129928464#1 -129928464#0 129928500 660984259 367038308 367038312 367038314 129942852 -129942640#1 -129942640#0 129942708#0 129942708#1 129942708#2 129942708#3 129942708#4 129942708#5 129942708#6 129942708#7 129942708#8 129942708#9 129942708#10 129942708#11 129942708#12 129942708#13 129942708#14 129942708#15 129942708#16 129942708#17 129942708#18 129942708#19"/>
    </vehicle>
    <vehicle id="18" depart="18.00">
        <route edges="442194862#2 -442194862#2 407469592#2 -442194863#1 -442194863#0 -185209869#4 -185209869#3 -185209869#2 -185209869#1 -185209869#0 404166558 -129854963#2 -129854963#1 -129854963#0 398837278#4 398837278#5 398837278#6 398837278#7 874640918 428121313#0 428121313#1 428121313#2 428121313#3 428121313#4 428121313#5 428121313#6 905745220 659361858#0 659361858#1 659361858#2 659361858#3 931868497 386820242#0 386820242#1 386820242#2 386820242#3 386820242#4 386820242#5 386820242#6 386820242#7 658255398 -266453299#1 -266453299#0 -266437796#1 266453301"/>
    </vehicle>
    <vehicle id="19" depart="19.00">
        <route edges="658586103#1 399345574#1 399345574#2 399345574#3 778945014#0 778945014#1 778945014#2 778945014#3 778945014#4 778945014#5 778945014#6 778945014#7 129929368#0 129929368#1 129929368#2 129929368#3 129929368#4 129929368#5 129929368#6 129929368#7 129929368#8 129929368#9 129929368#10 367038273#0 367038273#1 658255392 -658255393 -384222962#2 -384222962#1 -384222962#0 -433148610 433148611#3 433148611#4 433148611#0 -129932515#1 -129932515#0 -129932495 -129928464#1 -129928464#0 129928500 660984259 367038308 367038312 367038314 129942852 -129942640#1 -129942640#0 129942708#0 -661615722#1 -661615722#0 -129942827#3 129942780#0 129942780#1"/>
    </vehicle>
    <vehicle id="20" depart="20.00">
        <route edges="345977851#5 129857826#0 129857826#1 129857826#2 129857826#3 399342572 905745220 659361858#0 659361858#1 659361858#2 659361858#3 931868497 -367038261 -129760369#7 -266482067 -266482081 -660587337#2 -660587337#1 -660587337#0 -660587338 -660587336 -129929320#3 -129929320#2 -129929320#1"/>
    </vehicle>
    <vehicle id="21" depart="21.00">
        <route edges="-367178391 -661617492 661617492 367178391 129928467 399756206 433148611#2 433148611#3 433148609#0 433148609#1 -129932511#1 -129932511#0 -266482084#0 -266482085 -437895857#2 -437895857#1 -437895857#0 660985922 437895859 437895858 660570747 660570746#0 660570746#1 399149595 658259084 437895860#0 437895860#1 291265588 960359133 291265603#1 291265603#2 291265603#3 291265603#4 291265603#5 413489362#0 842028963 -842028962#1 -842028962#0 -736662810#3 -736662810#2 -736662810#1 -736662810#0 294907540#1 294907540#2 294907540#3 960314176 899833737#3 899833737#4 292489656#0 292489656#1 292489656#2 373329426 291265581#8 320052860#0 320052860#1 367178416#1 367178416#2 367178416#3 -842028970#2 -842028970#1 -842028970#0 -842028968 -842028979#0 -842028980#1 -842028980#0 -404096738#3 -404096738#2"/>
    </vehicle>
    <vehicle id="22" depart="22.00">
        <route edges="-129942530#1 661615726#0 129942746#0 129942746#1 -384222962#1 -384222962#0 -266482084#1 -266482084#0 -266482085 -437895857#2 -437895857#1 -437895857#0 660985922 437895859 437895858 660570747 660570746#0 660570746#1 399149595 658259084 437895860#0 437895860#1 291265588 960359133 291265603#1 291265603#2 291265603#3 291265603#4 291265603#5 413489362#0 842028963 -842028962#1 -842028962#0 -736662810#3 -736662810#2 -736662810#1 -736662810#0 294907540#1 294907540#2 294907540#3 960314176 899833737#3 899833737#4 292489656#0 292489656#1 292489656#2 373329426 291265581#8 320052860#0 367178403#0 367178403#1 367178403#2 367178403#3 367178403#4 -367178403#4 -367178403#3"/>
    </vehicle>
    <vehicle id="23" depart="23.00">
        <route edges="-129942703#0 129942703#0 129942703#1 129942827#1 129942827#2 129942827#3 661615722#0 661615722#1 -129942708#0 129942640#0 129942640#1 -129942852 367038309 367038310 367038311 660984261 660985923 660985924 -367178386 -367178385 -399756202#1 -399756202#0 -129928467 -367178391 -661617492 661617491 -905747355#2 -905747355#1 -905747355#0 -351033080#11 -351033080#10 -351033080#9 399568779#0 399568779#1 400189661#1 -400189661#1"/>
    </vehicle>
    <vehicle id="24" depart="24.00">
        <route edges="266454616 367038296 266437815#0 266437815#1 129857185#0 129857185#1 129857185#2 266454619 658255407 266454614 437895859 437895858 660570747 660570746#0 660570746#1 399149595 658259083 658259085#0 660771532#0 660771532#1 660771532#2 660771532#3 -129942740#1 -660771533"/>
    </vehicle>
    <vehicle id="25" depart="25.00">
        <route edges="-660777931 -588760195#6 -588760195#5 -588760195#4 -588760195#3 -588760195#2 -588760195#1 -588760195#0 -129942621 -660984256#0 -660984258#1 -660984258#0 -129942852 367038309 367038310 367038311 660984261 660985923 660985924 -367178386 -367178385 -399756202#1 -399756202#0 -129928467 -367178391 -661617492 661617491 -905747355#2 -905747355#1 -905747355#0 1201588311 1201588310 129942512#0 129942512#1 129942512#2 129942512#3 129942512#4 338160224#0 -338160234#1"/>
    </vehicle>
    <vehicle id="26" depart="26.00">
        <route edges="-399568776#2 -399568776#1 -399568776#0 -129942802#2 -129942802#1 -664399845#1 -664399845#0 399568775#2 664379236 664379235 -129942512#3 -129942512#2 -129942512#1 -129942512#0 -1201588310 -1201588311 -351033080#11 -351033080#10 129932521#0 129932521#1 129932521#2 129932521#3 -399342579#4 -399342579#3 -399342579#2 -399342579#1 -399342579#0 -399342581 -665896899 -665896900 -351033079#4 -351033079#3 129929793#0 129929793#1 129929793#2 129942775 662229310#0 662451948#1 662398324#2 662231433"/>
    </vehicle>
    <vehicle id="27" depart="27.00">
        <route edges="266482078#2 -266482078#2 -266482078#1 -266482078#0 -266482080 -129932514#1 -129932514#0 -386820242#1 -386820242#0 -367038261 -129760369#7 -129760369#6 -129760369#5 -129760369#4 -129760369#3 -129760369#2 -129760369#1 -129760369#0 -658884188#1 -658884188#0 -129760440#1 -129760440#0 185208375 129854951 185209870#0 185209870#1 185209870#2 185209870#3 185209870#4"/>
    </vehicle>
    <vehicle id="28" depart="28.00">
        <route edges="-266482066 -659343045 129760369#5 129760369#6 129760369#7 367038261 386820242#0 386820242#1 386820242#2 386820242#3 386820242#4 386820242#5 386820242#6 386820242#7 658255398 266437812 266454615 266454619 658255406 658255408 658255397 -266482082 -266482079 -367038272#1 -367038272#0 367038271 -384222962#2 -384222962#1 -384222962#0 -433148610 433148611#3 433148611#4 433148611#0 433148611#1 -399756206 399756202#0 399756202#1 367178385"/>
    </vehicle>
    <vehicle id="29" depart="29.00">
        <route edges="-266454231#0 129932482#8 129932482#9 129932482#10 129932482#11 129932482#0 129932482#1 129932482#2 129932482#3 129932482#4 266437796#0 266437796#1 266453299#0 266453299#1 266437812 266454615 266454619 658255406 658255408 658255397 -266482082 -266482079 -367038272#1 -367038272#0 367038271 -384222962#2 -384222962#1 -384222962#0 -433148610 433148611#3 433148611#4 433148611#0 -129932515#1 -129932515#0 -129932495 -129928464#1 -129928464#0 129928500 660984259 367038308 367038312 367038314 129942852 660984258#0 660984258#1 660984256#0 660984256#1 470060645 660984257#0 129942826#0 129942826#1 129942735#0 -661030700#0"/>
    </vehicle>
    <vehicle id="30" depart="30.00">
        <route edges="899785065#1 266478237#0 960209678#0 960209678#1 960209678#2 367178416#6 367178416#0 367178416#1 292489659#0 292489659#1 292489659#2 291265599#1 291265586 291263821#0 291263821#1 291263821#2"/>
    </vehicle>
    <vehicle id="31" depart="31.00">
        <route edges="129942675#1 129942815#4 -129942751#0 661615722#1 -129942708#0 129942640#0 129942640#1 -129942852 367038309 367038310 367038311 660984261 660985923 660985924 -367178386 -367178385 -399756202#1 -399756202#0 -129928467 -367178391 -661617492 661617491 -905747355#2 -905747355#1 -905747355#0 1201588311 1201588310 129942512#0 129942512#1 338160225#0 338160225#1 -338160233#4 338160233#4"/>
    </vehicle>
    <vehicle id="33" depart="33.00">
        <route edges="-367178402#1 -367178403#4 -367178403#3 -367178403#2 -367178403#1 -367178403#0 320052860#1 367178416#1 367178416#2 367178416#3 -842028970#2 -842028970#1 -842028970#0 -842028968 -842028979#0 -842028980#1 -842028980#0 -404096738#3 -404096738#2 -404096738#1 -404096738#0 658884189#1 658884189#2 658884189#3 658884189#4 658884189#5 658884189#6 658884189#7 658884189#8 658884189#9 658884189#10 658884189#11 658884189#12 658884189#13 658884189#14 658884189#15 658884189#16 658884189#17 658884189#18 129857200#0 -129857203#1"/>
    </vehicle>
    <vehicle id="34" depart="34.00">
        <route edges="-442195267#1 442195267#1 664422879#2 664422879#3 664422879#4 -442195269 129942728#7 129942728#8 129942728#9 -338160229#0 -338160228#1 -338160228#0 -338160225#0 129942512#2 129942512#3 -664379235 -664379236 -399568775#2 -399568775#1 -399568775#0 129942802#2 399568776#0 -399568776#0"/>
    </vehicle>
    <vehicle id="35" depart="35.00">
        <route edges="-341205701#0 129942744#2 367011029#3 129942844#0 129942844#1 129942844#2 129942844#3 662451947#0"/>
    </vehicle>
    <vehicle id="36" depart="36.00">
        <route edges="658884189#3 658884189#4 658884189#5 658884189#6 658884189#7 658884189#8 658884189#9 658884189#10 658884189#11 -129857179#9 -129857179#8 -129857179#7 -129857179#6 -129857179#5 -129857179#4 -129857179#3 -129857179#2 -185209867#2 -185209867#1 -185209867#0 185208374 185208375 129854951 185209870#0 185209870#1 185209870#2 185209870#3 658748213 442195194 442195195#0 442195195#1 656491246#0 656491246#1 656491246#2 894158446 658748209#0 407469600#1 442197256#0 -442197259#0"/>
    </vehicle>
    <vehicle id="37" depart="37.00">
        <route edges="291265587 960359133 291265603#1 291265603#2 291265603#3 291265603#4 291265603#5 291265603#6 960359134 291265606 -1032672500 -1032672501 -437895860#1 -437895860#0 129942551 658259085#0 658259085#1 -660570746#1 -660570746#0 -660570747 -437895858 660570745 660985922 -266454614 266437808 658255408 658255397 -266482082 -266482079 -367038272#1 -367038272#0 367038271 658255393 660564763#0 660564763#1 660564763#2 367152650 129753211#0 129753211#1 129753211#2 129753211#3 129753211#4 129753211#5 -662451954#5 -662451954#4 -662398317#1 -662451943#2 -662451943#1"/>
    </vehicle>
    <vehicle id="38" depart="38.00">
        <route edges="660984255#1 -129942612 -660984256#8 661020856#0 -419590977#0 -129942708#6 -129942708#5 -129942708#4 -129942708#3 -129942708#2 -129942708#1 -129942708#0 129942640#0 129942640#1 -129942852 367038309 367038310 367038311 660984261 660985923 367152655 660985925 129928464#0 129928464#1 129932495 129932515#0 129932515#1 433148611#1 433148611#2 433148610 384222962#0 384222962#1 384222962#2 658255393 660564763#0 660564763#1 367038275 367038273#0 393873907 129942569#1 129942569#2 -266482078#1 -266482078#0 -266482080 -129932514#1 -129932514#0 -386820242#1 -386820242#0 -367038261 367038265#0 367038265#1 367038265#2 367038265#3 367038265#4 659361851#1 659361851#2 659361851#3 659361851#4 -658884193#7 428121313#0 -658884189#19 -658884189#18 -658884189#17 -658884189#16 -658884189#15 -658884189#14 -658884189#13 -658884189#12 -658884189#11 -658884189#10 129857196#0"/>
    </vehicle>
    <vehicle id="39" depart="39.00">
        <route edges="-399568767#2 658586101#1 658586101#2 -399342550#1 -399342550#0 -384124922 384124917 -129928480 658014370 387695784 -387695784"/>
    </vehicle>
    <vehicle id="40" depart="40.00">
        <route edges="129942708#1 -129942708#1 -129942708#0 129942640#0 129942640#1 -129942852 367038309 367038310 367038311 660984261 660985923 660985924 -367178386 -367178385 -399756202#1 -399756202#0 -129928474 660984264#4 -399342580#6 -399342580#5 -399342580#4 -399342580#3 -399342580#2 -399342580#1 -399342580#0"/>
    </vehicle>
    <vehicle id="41" depart="41.00">
        <route edges="129942766#2 129942712#2 129942778#3 -129942790#1 -129942790#0 -997456913 -997456914 -399346096 -366598816#1 -366598816#0 366598813 662637047#0 662637047#1 658014352#0 658014352#1 658014352#2 129753202#0 129753202#1 129753202#2 129753202#3 129753202#4 129929785 662231430 662231427 662231431#0 662231431#1 662231436 662231435 662231439#0 662231439#1 662451952 662451954#0 662451954#1 129929794 -367011029#0 367011027 367011026#2 660564762#0"/>
    </vehicle>
    <vehicle id="42" depart="42.00">
        <route edges="-662398309#0 -129942510#0 -399342580#0 -399342579#4 -399342579#3 -399342579#2 -399342579#1 -399756198 -399756200#3 -399756200#2 -399756200#1 -351033080#4 -351033080#3"/>
    </vehicle>
    <vehicle id="43" depart="43.00">
        <route edges="960314177 294907540#5 294907540#6 294907540#7 294907540#0 736662810#0 736662810#1 736662810#2 736662810#3 842028962#0 842028962#1 -842028963 -413489362#0 291265603#6 960359134 291265606 -1032672500 -1032672501 -437895860#1 -437895860#0 129942551 658259085#0 658259085#1 -660570746#1 -660570746#0 -660570747 -437895858 660570745 437895857#0 437895857#1 437895857#2 266482085 266482084#0 129932511#0 129932511#1 -433148609#1 -433148609#0 433148611#4 433148611#0 433148611#1 -399756206 -129928467 -367178391 -661617492 661617491 -905747355#2 -905747355#1 -905747355#0 -351033080#11 -351033080#10 -351033080#9 399568779#0 399568779#1 399568779#2 -400189662#3 -400189662#2 129932516#2"/>
    </vehicle>
    <vehicle id="44" depart="44.00">
        <route edges="-129942645 -129942811#0 -399149591#2 -129942674#1 -129942674#0 660931709#2 -129942787#2 -129942787#1 -129942787#0 -399149593#2 -399149593#1 -399149593#0 -660570746#0 -660570747 -437895858 660570745 660985922 -266454614 266437808 658255408 658255395 658255405 658255401 -386820242#7 -386820242#6 -386820242#5 -386820242#4 -386820242#3 -386820242#2 -386820242#1 -386820242#0 -367038261 -266482073 -266482068 -129929348#2 -129929348#1 -129929348#0 129929320#6 129929320#7 -129929320#7"/>
    </vehicle>
    <vehicle id="45" depart="45.00">
        <route edges="-129942719#1 129942834#6 129942740#1 -660771532#3 -660771532#2 -660771532#1 -660771532#0 658259085#1 -660570746#1 660570746#1 399149595 658259084 437895860#0 437895860#1 291265588 960359133 291265603#1 291265603#2 291265603#3 291265603#4 291265603#5 413489362#0 842028963 -842028962#1 -842028962#0 -736662810#3 -736662810#2 -736662810#1 -736662810#0 294907540#1 294907540#2 294907540#3 294907540#4 294907540#5 294907539#0 294907539#1 294907539#2 294907539#3 294907539#4 266475901#0 266478250#0 266478250#1 266455682#2"/>
    </vehicle>
    <vehicle id="46" depart="46.00">
        <route edges="399756215#0 399756215#1 399756215#2 399756215#3 384248227 660592916#2 365616570 243601587 838067684 366752612#0 366752612#1 366752612#2 366752612#3 659182738 659182730 659182735 129929368#0 129929357#0 129929357#1 129929357#2 129929357#3 266482075 266482076#0 266482076#1 659288429 -129932530#3 -129932530#2 -129932530#1 -129932530#0 398837278#7 874640918 428121313#0 -658884189#19 -658884189#18 -658884189#17 -658884189#16 -658884189#15 -658884189#14 -658884189#13 -658884189#12 -658884189#11 -658884189#10 -658884189#9 -658884189#8 -658884189#7 -658884189#6 -658884189#5 -658884189#4 -658884189#3 -658884189#2 -658884189#1 404096738#0 404096738#1 404096739 404096738#3 842028980#0 842028980#1 842028979#0 842028968 842028970#0 842028970#1 -842028970#1 -842028970#0"/>
    </vehicle>
    <vehicle id="47" depart="47.00">
        <route edges="-129932511#1 129932511#1 -433148609#1 -433148609#0 433148611#4 433148611#0 -129932515#1 -129932515#0 -129932495 -129928464#1 -129928464#0 129928500 660984259 367038308 367038312 367038314 129942852 -129942640#1 -129942640#0 129942708#0 -661615722#1 -661615722#0 129942815#2 661615721#0 -661615721#0"/>
    </vehicle>
    <vehicle id="48" depart="48.00">
        <route edges="960209677#1 -842028969 842028970#2 367178416#4 367178416#5 367178416#6 367178416#0 367178416#1 292489659#0 292489659#1 292489659#2 291265599#1 291265586 266455682#13 266455682#14 266455682#15 266455682#16 266454618 294742701#1 294742701#2 365438579 365438578 321893262 321893261#3 835764178#0 266454622#0 266454622#1 266437815#0 266437815#1 129857185#0 129857185#1 129857185#2 266454619 658255406 658255408 658255397 -266482082 -266482079 -367038272#1 -367038272#0 367038271 384222959 -399342568#3 -399342568#2 -399342568#1 -399342568#0 -129942836#3 129942535#5 129942535#6 129942535#7"/>
    </vehicle>
    <vehicle id="49" depart="49.00">
        <route edges="779225952 266475897#1 266475897#2 266475897#3 266475899 -779227190 -779227193 -266475896 -1032672498#4 -1032672498#3 -1032672498#2 -1032672498#1 -1032672498#0 -1032672499 -1032672500 -1032672501 -437895860#1 -437895860#0 129942551 658259085#0 658259085#1 -660570746#1 -660570746#0 -660570747 -437895858 660570745 660985922 -266454614 266437808 658255408 658255397 -266482082 -266482079 -367038272#1 -367038272#0 367038271 658255393 660564763#0 660564763#1 660564763#2 367152650 129753211#0 129753211#1 129753211#2 129753211#3 129753211#4 129753211#5 399756215#0 399756215#1 399756215#2 399756215#3 399756215#4 658555482 658555481#0 658555481#1 399756219#0 399756219#1 399756219#2 658014350#2 658555471 -658555473#1 -658555473#0 -658014352#7 -658014352#6 -658014352#5 366598794#0 366598794#1 366598794#2 366598794#3 129929365 386100106#2 -658586114 658586113 366598786#1 366598786#2 366598786#3 366598786#4 366598788 658616114#0 658616114#1"/>
    </vehicle>
</routes>
