<?xml version="1.0" encoding="UTF-8"?>

<!-- generated on 2023-10-08 18:12:20 by Eclipse SUMO netconvert Version 1.18.0
<configuration xmlns:xsi="http://www.w3.org/2001/XMLSchema-instance" xsi:noNamespaceSchemaLocation="http://sumo.dlr.de/xsd/netconvertConfiguration.xsd">

    <input>
        <osm-files value="map.osm"/>
    </input>

    <output>
        <output-file value="amp.net.xml"/>
    </output>

    <projection>
        <proj.utm value="true"/>
    </projection>

</configuration>
-->

<net version="1.16" junctionCornerDetail="5" limitTurnSpeed="5.50" xmlns:xsi="http://www.w3.org/2001/XMLSchema-instance" xsi:noNamespaceSchemaLocation="http://sumo.dlr.de/xsd/net_file.xsd">

    <location netOffset="-494192.73,2349756.15" convBoundary="0.00,0.00,9265.80,6601.53" origBoundary="-45.057493,-21.249457,-44.966667,-21.189801" projParameter="+proj=utm +zone=23 +ellps=WGS84 +datum=WGS84 +units=m +no_defs"/>

    <type id="highway.footway" priority="1" numLanes="1" speed="2.78" allow="pedestrian" oneway="1" width="2.00"/>
    <type id="highway.path" priority="1" numLanes="1" speed="5.56" allow="pedestrian bicycle" oneway="0" width="2.00"/>
    <type id="highway.residential" priority="3" numLanes="1" speed="13.89" disallow="tram rail_urban rail rail_electric rail_fast ship" oneway="0"/>
    <type id="highway.secondary" priority="11" numLanes="1" speed="27.78" disallow="tram rail_urban rail rail_electric rail_fast ship" oneway="0"/>
    <type id="highway.secondary_link" priority="6" numLanes="1" speed="22.22" disallow="tram rail_urban rail rail_electric rail_fast ship" oneway="0"/>
    <type id="highway.service" priority="1" numLanes="1" speed="5.56" allow="pedestrian delivery bicycle" oneway="0"/>
    <type id="highway.steps" priority="1" numLanes="1" speed="1.39" allow="pedestrian" oneway="1" width="2.00"/>
    <type id="highway.tertiary" priority="10" numLanes="1" speed="22.22" disallow="tram rail_urban rail rail_electric rail_fast ship" oneway="0"/>
    <type id="highway.tertiary_link" priority="5" numLanes="1" speed="22.22" disallow="tram rail_urban rail rail_electric rail_fast ship" oneway="0"/>
    <type id="highway.unclassified" priority="4" numLanes="1" speed="13.89" disallow="tram rail_urban rail rail_electric rail_fast ship" oneway="0"/>
    <type id="railway.rail" priority="20" numLanes="1" speed="44.44" allow="rail" oneway="1"/>

    <edge id=":1430849554_0" function="internal">
        <lane id=":1430849554_0_0" index="0" disallow="tram rail_urban rail rail_electric rail_fast ship" speed="7.63" length="5.40" shape="7059.91,2698.23 7058.79,2697.78 7057.54,2697.60 7056.16,2697.69 7054.66,2698.05"/>
    </edge>
    <edge id=":1430849554_1" function="internal">
        <lane id=":1430849554_1_0" index="0" disallow="tram rail_urban rail rail_electric rail_fast ship" speed="3.65" length="1.31" shape="7059.91,2698.23 7059.31,2697.06"/>
    </edge>
    <edge id=":1430849554_3" function="internal">
        <lane id=":1430849554_3_0" index="0" disallow="tram rail_urban rail rail_electric rail_fast ship" speed="3.65" length="3.36" shape="7059.31,2697.06 7059.25,2696.94 7059.29,2696.05 7060.03,2695.55 7061.46,2695.43"/>
    </edge>
    <edge id=":1430849554_2" function="internal">
        <lane id=":1430849554_2_0" index="0" disallow="tram rail_urban rail rail_electric rail_fast ship" speed="27.78" length="6.68" shape="7055.06,2693.78 7056.88,2694.47 7058.27,2694.59 7059.65,2694.71 7061.46,2695.43"/>
    </edge>
    <edge id=":1430849558_0" function="internal">
        <lane id=":1430849558_0_0" index="0" disallow="tram rail_urban rail rail_electric rail_fast ship" speed="11.11" length="4.66" shape="6822.96,2491.70 6822.60,2490.37 6822.27,2489.48 6821.86,2488.63 6821.23,2487.40"/>
    </edge>
    <edge id=":1430849558_1" function="internal">
        <lane id=":1430849558_1_0" index="0" disallow="tram rail_urban rail rail_electric rail_fast ship" speed="19.45" length="3.58" shape="6824.10,2485.98 6824.58,2486.93 6824.95,2487.55 6825.40,2488.13 6826.09,2488.93"/>
    </edge>
    <edge id=":1430849558_2" function="internal">
        <lane id=":1430849558_2_0" index="0" disallow="tram rail_urban rail rail_electric rail_fast ship" speed="3.65" length="4.67" shape="6824.10,2485.98 6823.92,2487.41 6823.37,2488.12 6822.48,2488.12 6821.23,2487.40"/>
    </edge>
    <edge id=":1430849580_0" function="internal">
        <lane id=":1430849580_0_0" index="0" disallow="tram rail_urban rail rail_electric rail_fast ship" speed="11.11" length="7.38" shape="6299.89,2016.77 6299.52,2014.67 6299.77,2013.17 6300.11,2011.64 6299.97,2009.48"/>
    </edge>
    <edge id=":1430849580_1" function="internal">
        <lane id=":1430849580_1_0" index="0" disallow="tram rail_urban rail rail_electric rail_fast ship" speed="3.65" length="4.67" shape="6299.89,2016.77 6300.27,2015.38 6300.90,2014.75 6301.79,2014.88 6302.92,2015.76"/>
    </edge>
    <edge id=":1430849580_2" function="internal">
        <lane id=":1430849580_2_0" index="0" disallow="tram rail_urban rail rail_electric rail_fast ship" speed="8.83" length="6.20" shape="6303.91,2009.88 6303.13,2011.56 6302.63,2012.79 6302.52,2014.04 6302.92,2015.76"/>
    </edge>
    <edge id=":1430849593_0" function="internal">
        <lane id=":1430849593_0_0" index="0" disallow="tram rail_urban rail rail_electric rail_fast ship" speed="11.11" length="15.17" shape="6308.33,1912.44 6308.99,1909.11 6308.97,1905.92 6308.49,1902.23 6307.74,1897.42"/>
        <lane id=":1430849593_0_1" index="1" disallow="tram rail_urban rail rail_electric rail_fast ship" speed="11.11" length="15.90" shape="6308.33,1912.44 6309.49,1909.09 6310.57,1905.81 6311.18,1901.98 6310.91,1896.96"/>
    </edge>
    <edge id=":1430849593_2" function="internal">
        <lane id=":1430849593_2_0" index="0" disallow="tram rail_urban rail rail_electric rail_fast ship" speed="11.11" length="16.13" shape="6308.33,1912.44 6309.25,1908.94 6310.35,1905.50 6312.29,1901.90 6315.73,1897.96"/>
        <lane id=":1430849593_2_1" index="1" disallow="tram rail_urban rail rail_electric rail_fast ship" speed="11.11" length="16.13" shape="6308.33,1912.44 6309.64,1909.26 6311.55,1906.56 6314.26,1903.75 6317.93,1900.28"/>
    </edge>
    <edge id=":1430849594_0" function="internal">
        <lane id=":1430849594_0_0" index="0" disallow="tram rail_urban rail rail_electric rail_fast ship" speed="6.75" length="8.81" shape="6307.71,1897.23 6307.05,1894.92 6305.83,1893.29 6304.06,1892.32 6301.73,1892.02"/>
    </edge>
    <edge id=":1430849594_1" function="internal">
        <lane id=":1430849594_1_0" index="0" disallow="tram rail_urban rail rail_electric rail_fast ship" speed="9.72" length="13.60" shape="6310.88,1896.76 6310.08,1892.55 6309.29,1889.44 6308.72,1886.65 6308.57,1883.39"/>
    </edge>
    <edge id=":1430849594_2" function="internal">
        <lane id=":1430849594_2_0" index="0" disallow="tram rail_urban rail rail_electric rail_fast ship" speed="6.88" length="9.85" shape="6301.69,1888.82 6304.63,1888.45 6306.75,1887.42 6308.07,1885.74 6308.57,1883.39"/>
    </edge>
    <edge id=":1430849594_3" function="internal">
        <lane id=":1430849594_3_0" index="0" disallow="tram rail_urban rail rail_electric rail_fast ship" speed="11.11" length="14.35" shape="6301.69,1888.82 6305.05,1888.83 6308.07,1889.08 6311.44,1889.73 6315.83,1890.96"/>
        <lane id=":1430849594_3_1" index="1" disallow="tram rail_urban rail rail_electric rail_fast ship" speed="11.11" length="14.35" shape="6301.69,1888.82 6304.91,1889.31 6307.62,1890.62 6310.67,1892.32 6314.89,1894.02"/>
    </edge>
    <edge id=":1430849594_5" function="internal">
        <lane id=":1430849594_5_0" index="0" disallow="tram rail_urban rail rail_electric rail_fast ship" speed="3.65" length="4.67" shape="6301.69,1888.82 6302.90,1889.60 6303.31,1890.40 6302.92,1891.20 6301.73,1892.02"/>
    </edge>
    <edge id=":1430849595_0" function="internal">
        <lane id=":1430849595_0_0" index="0" disallow="tram rail_urban rail rail_electric rail_fast ship" speed="11.11" length="9.68" shape="6040.86,1744.04 6039.65,1734.30"/>
        <lane id=":1430849595_0_1" index="1" disallow="tram rail_urban rail rail_electric rail_fast ship" speed="11.11" length="9.68" shape="6044.02,1743.51 6042.84,1734.05"/>
    </edge>
    <edge id=":1430849595_2" function="internal">
        <lane id=":1430849595_2_0" index="0" disallow="tram rail_urban rail rail_electric rail_fast ship" speed="5.99" length="8.01" shape="6044.02,1743.51 6043.78,1740.71 6044.10,1738.67 6045.01,1737.39 6046.48,1736.87"/>
    </edge>
    <edge id=":1430849595_3" function="internal">
        <lane id=":1430849595_3_0" index="0" disallow="tram rail_urban rail rail_electric rail_fast ship" speed="6.16" length="7.96" shape="6046.73,1740.06 6045.21,1739.78 6044.06,1738.69 6043.27,1736.77 6042.84,1734.05"/>
    </edge>
    <edge id=":1430849595_4" function="internal">
        <lane id=":1430849595_4_0" index="0" disallow="tram rail_urban rail rail_electric rail_fast ship" speed="3.65" length="4.67" shape="6046.73,1740.06 6045.47,1739.36 6045.01,1738.59 6045.35,1737.76 6046.48,1736.87"/>
    </edge>
    <edge id=":1430849596_0" function="internal">
        <lane id=":1430849596_0_0" index="0" disallow="tram rail_urban rail rail_electric rail_fast ship" speed="11.11" length="17.60" shape="5932.05,978.30 5927.09,979.71 5923.74,980.82 5920.46,982.15 5915.72,984.19"/>
        <lane id=":1430849596_0_1" index="1" disallow="tram rail_urban rail rail_electric rail_fast ship" speed="11.11" length="17.60" shape="5931.20,975.21 5926.11,976.66 5922.68,977.80 5919.31,979.16 5914.46,981.25"/>
    </edge>
    <edge id=":1430849596_2" function="internal">
        <lane id=":1430849596_2_0" index="0" disallow="tram rail_urban rail rail_electric rail_fast ship" speed="6.18" length="9.05" shape="5931.20,975.21 5928.67,975.53 5926.79,974.93 5925.53,973.39 5924.90,970.93"/>
    </edge>
    <edge id=":1430849596_3" function="internal">
        <lane id=":1430849596_3_0" index="0" disallow="tram rail_urban rail rail_electric rail_fast ship" speed="5.62" length="9.16" shape="5920.97,988.28 5920.98,985.50 5920.12,983.89 5918.36,983.45 5915.72,984.19"/>
    </edge>
    <edge id=":1430849596_4" function="internal">
        <lane id=":1430849596_4_0" index="0" disallow="tram rail_urban rail rail_electric rail_fast ship" speed="11.11" length="17.54" shape="5920.97,988.28 5921.70,983.26 5922.11,979.79 5922.14,976.31 5921.72,971.27"/>
        <lane id=":1430849596_4_1" index="1" disallow="tram rail_urban rail rail_electric rail_fast ship" speed="11.11" length="17.54" shape="5924.12,988.80 5924.89,983.52 5925.32,979.88 5925.35,976.23 5924.90,970.93"/>
    </edge>
    <edge id=":1430865739_0" function="internal">
        <lane id=":1430865739_0_0" index="0" allow="rail" speed="44.44" length="15.12" shape="6461.94,2487.95 6465.67,2487.38 6469.43,2486.89 6473.20,2486.50 6476.96,2486.26"/>
    </edge>
    <edge id=":1430865762_0" function="internal">
        <lane id=":1430865762_0_0" index="0" allow="rail" speed="44.44" length="0.31" shape="6770.29,2413.14 6770.33,2413.07 6770.36,2413.01 6770.39,2412.96 6770.42,2412.87"/>
    </edge>
    <edge id=":1430865765_0" function="internal">
        <lane id=":1430865765_0_0" index="0" allow="rail" speed="44.44" length="0.25" shape="6776.15,2398.26 6776.18,2398.19 6776.20,2398.14 6776.21,2398.09 6776.23,2398.02"/>
    </edge>
    <edge id=":1430865782_0" function="internal">
        <lane id=":1430865782_0_0" index="0" allow="rail" speed="44.44" length="0.39" shape="6816.96,2175.52 6817.04,2175.44 6817.11,2175.40 6817.17,2175.35 6817.27,2175.30"/>
    </edge>
    <edge id=":1430865784_0" function="internal">
        <lane id=":1430865784_0_0" index="0" allow="rail" speed="44.44" length="0.64" shape="6837.03,2164.78 6837.20,2164.70 6837.32,2164.65 6837.45,2164.62 6837.64,2164.60"/>
    </edge>
    <edge id=":1430865911_0" function="internal">
        <lane id=":1430865911_0_0" index="0" disallow="tram rail_urban rail rail_electric rail_fast ship" speed="11.11" length="17.20" shape="7901.30,1060.40 7897.47,1061.73 7893.51,1063.86 7889.73,1066.36 7886.43,1068.83"/>
    </edge>
    <edge id=":1430865911_1" function="internal">
        <lane id=":1430865911_1_0" index="0" disallow="tram rail_urban rail rail_electric rail_fast ship" speed="11.11" length="18.61" shape="7884.47,1066.30 7887.97,1063.74 7892.19,1061.03 7896.59,1058.70 7900.62,1057.27"/>
    </edge>
    <edge id=":1430865911_2" function="internal">
        <lane id=":1430865911_2_0" index="0" allow="rail" speed="44.44" length="19.33" shape="7889.34,1071.23 7898.04,1053.97"/>
    </edge>
    <edge id=":1430895166_0" function="internal">
        <lane id=":1430895166_0_0" index="0" allow="pedestrian delivery bicycle" speed="6.59" length="8.86" shape="5522.18,2426.74 5518.98,2427.21 5516.71,2428.00 5515.36,2429.10 5514.94,2430.51"/>
    </edge>
    <edge id=":1430895166_1" function="internal">
        <lane id=":1430895166_1_0" index="0" disallow="tram rail_urban rail rail_electric rail_fast ship" speed="11.11" length="14.56" shape="5522.18,2426.74 5507.66,2427.75"/>
    </edge>
    <edge id=":1430895166_2" function="internal">
        <lane id=":1430895166_2_0" index="0" disallow="tram rail_urban rail rail_electric rail_fast ship" speed="7.97" length="14.26" shape="5522.18,2426.74 5518.27,2426.52 5515.39,2425.09 5513.54,2422.47 5512.72,2418.64"/>
    </edge>
    <edge id=":1430895166_3" function="internal">
        <lane id=":1430895166_3_0" index="0" disallow="tram rail_urban rail rail_electric rail_fast ship" speed="3.65" length="4.67" shape="5522.18,2426.74 5520.92,2426.04 5520.45,2425.28 5520.78,2424.45 5521.91,2423.55"/>
    </edge>
    <edge id=":1430895166_4" function="internal">
        <lane id=":1430895166_4_0" index="0" disallow="tram rail_urban rail rail_electric rail_fast ship" speed="6.47" length="9.03" shape="5515.91,2418.42 5516.43,2420.84 5517.61,2422.51 5519.43,2423.41 5521.91,2423.55"/>
    </edge>
    <edge id=":1430895166_5" function="internal">
        <lane id=":1430895166_5_0" index="0" allow="pedestrian delivery bicycle" speed="8.33" length="12.15" shape="5515.91,2418.42 5515.89,2421.71 5515.51,2424.46 5515.09,2427.21 5514.94,2430.51"/>
    </edge>
    <edge id=":1430895166_6" function="internal">
        <lane id=":1430895166_6_0" index="0" disallow="tram rail_urban rail rail_electric rail_fast ship" speed="7.97" length="14.26" shape="5515.91,2418.42 5515.63,2422.32 5514.16,2425.18 5511.50,2426.99 5507.66,2427.75"/>
    </edge>
    <edge id=":1430895166_7" function="internal">
        <lane id=":1430895166_7_0" index="0" disallow="tram rail_urban rail rail_electric rail_fast ship" speed="3.65" length="4.67" shape="5515.91,2418.42 5515.20,2419.67 5514.43,2420.13 5513.60,2419.78 5512.72,2418.64"/>
    </edge>
    <edge id=":1430895166_8" function="internal">
        <lane id=":1430895166_8_0" index="0" disallow="tram rail_urban rail rail_electric rail_fast ship" speed="6.47" length="9.03" shape="5507.49,2424.55 5509.93,2424.07 5511.61,2422.93 5512.54,2421.12 5512.72,2418.64"/>
    </edge>
    <edge id=":1430895166_9" function="internal">
        <lane id=":1430895166_9_0" index="0" disallow="tram rail_urban rail rail_electric rail_fast ship" speed="11.11" length="14.45" shape="5507.49,2424.55 5521.91,2423.55"/>
    </edge>
    <edge id=":1430895166_10" function="internal">
        <lane id=":1430895166_10_0" index="0" allow="pedestrian delivery bicycle" speed="7.03" length="10.93" shape="5507.49,2424.55 5510.69,2424.78 5513.00,2425.85 5514.41,2427.76 5514.94,2430.51"/>
    </edge>
    <edge id=":1430895166_11" function="internal">
        <lane id=":1430895166_11_0" index="0" disallow="tram rail_urban rail rail_electric rail_fast ship" speed="3.65" length="4.67" shape="5507.49,2424.55 5508.73,2425.29 5509.17,2426.07 5508.82,2426.89 5507.66,2427.75"/>
    </edge>
    <edge id=":1430927620_0" function="internal">
        <lane id=":1430927620_0_0" index="0" disallow="tram rail_urban rail rail_electric rail_fast ship" speed="3.65" length="4.67" shape="6758.21,323.13 6759.29,322.18 6760.17,322.00 6760.84,322.59 6761.30,323.95"/>
    </edge>
    <edge id=":1430931370_0" function="internal">
        <lane id=":1430931370_0_0" index="0" disallow="tram rail_urban rail rail_electric rail_fast ship" speed="11.11" length="9.49" shape="5478.04,2429.31 5468.55,2429.59"/>
    </edge>
    <edge id=":1430931370_1" function="internal">
        <lane id=":1430931370_1_0" index="0" disallow="tram rail_urban rail rail_electric rail_fast ship" speed="11.11" length="10.21" shape="5468.49,2422.68 5471.16,2424.16 5473.00,2425.30 5474.94,2425.99 5477.87,2426.12"/>
    </edge>
    <edge id=":1430931370_2" function="internal">
        <lane id=":1430931370_2_0" index="0" disallow="tram rail_urban rail rail_electric rail_fast ship" speed="11.11" length="9.42" shape="5468.45,2426.39 5477.87,2426.12"/>
    </edge>
    <edge id=":1430931371_0" function="internal">
        <lane id=":1430931371_0_0" index="0" disallow="tram rail_urban rail rail_electric rail_fast ship" speed="11.11" length="8.12" shape="5453.00,2419.68 5451.75,2417.75 5451.51,2416.03 5451.30,2414.28 5450.11,2412.29"/>
    </edge>
    <edge id=":1430931371_1" function="internal">
        <lane id=":1430931371_1_0" index="0" disallow="tram rail_urban rail rail_electric rail_fast ship" speed="11.11" length="6.78" shape="5452.48,2410.13 5453.87,2411.57 5454.92,2412.47 5456.00,2413.33 5457.53,2414.64"/>
    </edge>
    <edge id=":1430931371_2" function="internal">
        <lane id=":1430931371_2_0" index="0" disallow="tram rail_urban rail rail_electric rail_fast ship" speed="3.65" length="1.44" shape="5452.48,2410.13 5452.69,2411.56"/>
    </edge>
    <edge id=":1430931371_4" function="internal">
        <lane id=":1430931371_4_0" index="0" disallow="tram rail_urban rail rail_electric rail_fast ship" speed="3.65" length="3.23" shape="5452.69,2411.56 5452.37,2412.39 5451.51,2412.63 5450.11,2412.29"/>
    </edge>
    <edge id=":1430931371_3" function="internal">
        <lane id=":1430931371_3_0" index="0" disallow="tram rail_urban rail rail_electric rail_fast ship" speed="8.39" length="8.93" shape="5447.94,2420.89 5448.49,2419.24 5449.38,2416.50 5450.09,2413.81 5450.11,2412.29"/>
    </edge>
    <edge id=":1431985827_0" function="internal">
        <lane id=":1431985827_0_0" index="0" disallow="tram rail_urban rail rail_electric rail_fast ship" speed="7.47" length="9.98" shape="7301.65,1229.17 7299.24,1229.45 7297.27,1230.52 7295.72,1232.39 7294.60,1235.05"/>
    </edge>
    <edge id=":1431985827_1" function="internal">
        <lane id=":1431985827_1_0" index="0" disallow="tram rail_urban rail rail_electric rail_fast ship" speed="11.11" length="14.30" shape="7301.65,1229.17 7298.02,1228.95 7294.52,1228.62 7291.04,1228.18 7287.44,1227.62"/>
    </edge>
    <edge id=":1431985827_2" function="internal">
        <lane id=":1431985827_2_0" index="0" disallow="tram rail_urban rail rail_electric rail_fast ship" speed="3.65" length="1.44" shape="7301.65,1229.17 7300.49,1228.32"/>
    </edge>
    <edge id=":1431985827_9" function="internal">
        <lane id=":1431985827_9_0" index="0" disallow="tram rail_urban rail rail_electric rail_fast ship" speed="3.65" length="3.23" shape="7300.49,1228.32 7300.13,1227.50 7300.56,1226.72 7301.80,1225.97"/>
    </edge>
    <edge id=":1431985827_3" function="internal">
        <lane id=":1431985827_3_0" index="0" disallow="tram rail_urban rail rail_electric rail_fast ship" speed="11.11" length="13.92" shape="7287.96,1224.47 7291.50,1225.01 7294.86,1225.44 7298.22,1225.76 7301.80,1225.97"/>
    </edge>
    <edge id=":1431985827_4" function="internal">
        <lane id=":1431985827_4_0" index="0" disallow="tram rail_urban rail rail_electric rail_fast ship" speed="7.80" length="4.10" shape="7287.96,1224.47 7291.87,1225.70"/>
    </edge>
    <edge id=":1431985827_5" function="internal">
        <lane id=":1431985827_5_0" index="0" disallow="tram rail_urban rail rail_electric rail_fast ship" speed="3.65" length="1.44" shape="7287.96,1224.47 7289.02,1225.45"/>
    </edge>
    <edge id=":1431985827_10" function="internal">
        <lane id=":1431985827_10_0" index="0" disallow="tram rail_urban rail rail_electric rail_fast ship" speed="7.80" length="10.59" shape="7291.87,1225.70 7294.28,1227.88 7295.19,1230.99 7294.60,1235.05"/>
    </edge>
    <edge id=":1431985827_11" function="internal">
        <lane id=":1431985827_11_0" index="0" disallow="tram rail_urban rail rail_electric rail_fast ship" speed="3.65" length="3.23" shape="7289.02,1225.45 7289.28,1226.30 7288.76,1227.03 7287.44,1227.62"/>
    </edge>
    <edge id=":1431985827_6" function="internal">
        <lane id=":1431985827_6_0" index="0" disallow="tram rail_urban rail rail_electric rail_fast ship" speed="6.25" length="9.05" shape="7291.53,1234.14 7291.89,1231.64 7291.33,1229.72 7289.85,1228.38 7287.44,1227.62"/>
    </edge>
    <edge id=":1431985827_7" function="internal">
        <lane id=":1431985827_7_0" index="0" disallow="tram rail_urban rail rail_electric rail_fast ship" speed="8.83" length="14.28" shape="7291.53,1234.14 7293.12,1230.44 7295.35,1227.84 7298.25,1226.36 7301.80,1225.97"/>
    </edge>
    <edge id=":1431985827_8" function="internal">
        <lane id=":1431985827_8_0" index="0" disallow="tram rail_urban rail rail_electric rail_fast ship" speed="3.65" length="4.67" shape="7291.53,1234.14 7292.64,1233.22 7293.52,1233.06 7294.17,1233.67 7294.60,1235.05"/>
    </edge>
    <edge id=":1431985831_0" function="internal">
        <lane id=":1431985831_0_0" index="0" disallow="tram rail_urban rail rail_electric rail_fast ship" speed="7.33" length="10.12" shape="7204.36,1217.56 7201.86,1217.72 7199.83,1218.72 7198.26,1220.58 7197.14,1223.27"/>
    </edge>
    <edge id=":1431985831_1" function="internal">
        <lane id=":1431985831_1_0" index="0" disallow="tram rail_urban rail rail_electric rail_fast ship" speed="11.11" length="14.64" shape="7204.36,1217.56 7189.79,1216.12"/>
    </edge>
    <edge id=":1431985831_2" function="internal">
        <lane id=":1431985831_2_0" index="0" disallow="tram rail_urban rail rail_electric rail_fast ship" speed="9.56" length="3.10" shape="7204.36,1217.56 7201.60,1216.74 7201.42,1216.61"/>
    </edge>
    <edge id=":1431985831_3" function="internal">
        <lane id=":1431985831_3_0" index="0" disallow="tram rail_urban rail rail_electric rail_fast ship" speed="3.65" length="1.44" shape="7204.36,1217.56 7203.24,1216.65"/>
    </edge>
    <edge id=":1431985831_16" function="internal">
        <lane id=":1431985831_16_0" index="0" disallow="tram rail_urban rail rail_electric rail_fast ship" speed="9.56" length="10.86" shape="7201.42,1216.61 7199.17,1214.85 7197.09,1211.90 7195.35,1207.87"/>
    </edge>
    <edge id=":1431985831_17" function="internal">
        <lane id=":1431985831_17_0" index="0" disallow="tram rail_urban rail rail_electric rail_fast ship" speed="3.65" length="3.23" shape="7203.24,1216.65 7202.92,1215.81 7203.39,1215.05 7204.66,1214.37"/>
    </edge>
    <edge id=":1431985831_4" function="internal">
        <lane id=":1431985831_4_0" index="0" disallow="tram rail_urban rail rail_electric rail_fast ship" speed="7.96" length="9.44" shape="7198.67,1207.70 7199.86,1210.48 7201.26,1212.52 7202.86,1213.82 7204.66,1214.37"/>
    </edge>
    <edge id=":1431985831_5" function="internal">
        <lane id=":1431985831_5_0" index="0" disallow="tram rail_urban rail rail_electric rail_fast ship" speed="8.33" length="15.86" shape="7198.67,1207.70 7199.31,1211.45 7199.03,1215.45 7198.19,1219.47 7197.14,1223.27"/>
    </edge>
    <edge id=":1431985831_6" function="internal">
        <lane id=":1431985831_6_0" index="0" disallow="tram rail_urban rail rail_electric rail_fast ship" speed="6.89" length="13.65" shape="7198.67,1207.70 7198.42,1210.70 7196.25,1213.51 7193.08,1215.52 7189.79,1216.12"/>
    </edge>
    <edge id=":1431985831_7" function="internal">
        <lane id=":1431985831_7_0" index="0" disallow="tram rail_urban rail rail_electric rail_fast ship" speed="3.70" length="4.87" shape="7198.67,1207.70 7197.90,1208.99 7197.09,1209.45 7196.24,1209.07 7195.35,1207.87"/>
    </edge>
    <edge id=":1431985831_8" function="internal">
        <lane id=":1431985831_8_0" index="0" disallow="tram rail_urban rail rail_electric rail_fast ship" speed="5.86" length="9.47" shape="7190.12,1212.94 7193.15,1212.89 7195.04,1212.04 7195.77,1210.36 7195.35,1207.87"/>
    </edge>
    <edge id=":1431985831_9" function="internal">
        <lane id=":1431985831_9_0" index="0" disallow="tram rail_urban rail rail_electric rail_fast ship" speed="11.11" length="14.62" shape="7190.12,1212.94 7204.66,1214.37"/>
    </edge>
    <edge id=":1431985831_10" function="internal">
        <lane id=":1431985831_10_0" index="0" disallow="tram rail_urban rail rail_electric rail_fast ship" speed="7.72" length="4.19" shape="7190.12,1212.94 7194.18,1213.95"/>
    </edge>
    <edge id=":1431985831_11" function="internal">
        <lane id=":1431985831_11_0" index="0" disallow="tram rail_urban rail rail_electric rail_fast ship" speed="3.65" length="1.44" shape="7190.12,1212.94 7191.23,1213.85"/>
    </edge>
    <edge id=":1431985831_18" function="internal">
        <lane id=":1431985831_18_0" index="0" disallow="tram rail_urban rail rail_electric rail_fast ship" speed="7.72" length="10.71" shape="7194.18,1213.95 7196.71,1216.01 7197.70,1219.12 7197.14,1223.27"/>
    </edge>
    <edge id=":1431985831_19" function="internal">
        <lane id=":1431985831_19_0" index="0" disallow="tram rail_urban rail rail_electric rail_fast ship" speed="3.65" length="3.23" shape="7191.23,1213.85 7191.55,1214.69 7191.07,1215.45 7189.79,1216.12"/>
    </edge>
    <edge id=":1431985831_12" function="internal">
        <lane id=":1431985831_12_0" index="0" disallow="tram rail_urban rail rail_electric rail_fast ship" speed="6.16" length="9.05" shape="7194.06,1222.40 7194.40,1219.88 7193.80,1217.99 7192.26,1216.74 7189.79,1216.12"/>
    </edge>
    <edge id=":1431985831_13" function="internal">
        <lane id=":1431985831_13_0" index="0" disallow="tram rail_urban rail rail_electric rail_fast ship" speed="8.33" length="14.82" shape="7194.06,1222.40 7195.07,1218.76 7195.83,1215.10 7196.02,1211.45 7195.35,1207.87"/>
    </edge>
    <edge id=":1431985831_14" function="internal">
        <lane id=":1431985831_14_0" index="0" disallow="tram rail_urban rail rail_electric rail_fast ship" speed="8.55" length="14.10" shape="7194.06,1222.40 7195.66,1219.29 7198.30,1216.64 7201.47,1214.86 7204.66,1214.37"/>
    </edge>
    <edge id=":1431985831_15" function="internal">
        <lane id=":1431985831_15_0" index="0" disallow="tram rail_urban rail rail_electric rail_fast ship" speed="3.65" length="4.67" shape="7194.06,1222.40 7195.16,1221.46 7196.04,1221.30 7196.70,1221.90 7197.14,1223.27"/>
    </edge>
    <edge id=":1431985833_0" function="internal">
        <lane id=":1431985833_0_0" index="0" disallow="tram rail_urban rail rail_electric rail_fast ship" speed="8.82" length="11.45" shape="7543.52,1211.55 7541.26,1212.47 7539.38,1214.19 7537.87,1216.72 7536.75,1220.05"/>
    </edge>
    <edge id=":1431985833_1" function="internal">
        <lane id=":1431985833_1_0" index="0" disallow="tram rail_urban rail rail_electric rail_fast ship" speed="11.11" length="14.83" shape="7543.52,1211.55 7528.89,1213.95"/>
    </edge>
    <edge id=":1431985833_2" function="internal">
        <lane id=":1431985833_2_0" index="0" disallow="tram rail_urban rail rail_electric rail_fast ship" speed="3.65" length="1.44" shape="7543.52,1211.55 7542.18,1211.02"/>
    </edge>
    <edge id=":1431985833_9" function="internal">
        <lane id=":1431985833_9_0" index="0" disallow="tram rail_urban rail rail_electric rail_fast ship" speed="3.65" length="3.23" shape="7542.18,1211.02 7541.63,1210.31 7541.86,1209.45 7542.87,1208.42"/>
    </edge>
    <edge id=":1431985833_3" function="internal">
        <lane id=":1431985833_3_0" index="0" disallow="tram rail_urban rail rail_electric rail_fast ship" speed="11.11" length="14.60" shape="7528.46,1210.78 7542.87,1208.42"/>
    </edge>
    <edge id=":1431985833_4" function="internal">
        <lane id=":1431985833_4_0" index="0" disallow="tram rail_urban rail rail_electric rail_fast ship" speed="7.50" length="4.23" shape="7528.46,1210.78 7532.70,1210.81"/>
    </edge>
    <edge id=":1431985833_5" function="internal">
        <lane id=":1431985833_5_0" index="0" disallow="tram rail_urban rail rail_electric rail_fast ship" speed="3.65" length="1.44" shape="7528.46,1210.78 7529.76,1211.41"/>
    </edge>
    <edge id=":1431985833_10" function="internal">
        <lane id=":1431985833_10_0" index="0" disallow="tram rail_urban rail rail_electric rail_fast ship" speed="7.50" length="11.66" shape="7532.70,1210.81 7533.10,1210.81 7536.02,1212.36 7537.24,1215.45 7536.75,1220.05"/>
    </edge>
    <edge id=":1431985833_11" function="internal">
        <lane id=":1431985833_11_0" index="0" disallow="tram rail_urban rail rail_electric rail_fast ship" speed="3.65" length="3.23" shape="7529.76,1211.41 7530.26,1212.15 7529.97,1213.00 7528.89,1213.95"/>
    </edge>
    <edge id=":1431985833_6" function="internal">
        <lane id=":1431985833_6_0" index="0" disallow="tram rail_urban rail rail_electric rail_fast ship" speed="5.84" length="9.13" shape="7533.64,1219.28 7533.93,1216.63 7533.23,1214.86 7531.55,1213.97 7528.89,1213.95"/>
    </edge>
    <edge id=":1431985833_7" function="internal">